LAMMPS (29 Sep 2021 - Update 1)

#======================Simulation Parameters====================
variable run_steps         equal 10000
variable        T equal 690
variable        Tx2 equal 690.*2
variable        seed equal 1234712
variable        size equal 2
#=====================Box parameters============================

#=====================Box parameters============================
units       metal
boundary p p p

box tilt large
read_data       supercell_lammps
Reading data file ...
  triclinic box = (0.0000000 0.0000000 0.0000000) to (10.520000 9.1105872 9.9800000) with tilt (0.0000000 0.0000000 0.0000000)
  reading atoms ...
  64 atoms

mass    1  65.38 #Zn

#====================Potential parameters=======================
pair_style  mlip mlip.ini
pair_coeff  * *           #
#neighbor    2.0 bin
neighbor    1.0 bin
neigh_modify delay 0 every 1 check yes
#neigh_modify delay 10 check yes
#========================Create regions=========================
velocity all create 1380 1234712

#=========thermo==================
thermo_style custom step temp vol press

#==========================Output files========================
#------solid at npt-------------------
fix      1 all nvt temp $T $T 0.1
fix      1 all nvt temp 690 $T 0.1
fix      1 all nvt temp 690 690 0.1
timestep 0.001
thermo_style custom step time temp vol press
thermo 1
run 10
  update every 1 steps, delay 0 steps, check yes
Step Time Temp Volume Press
0            0         1380    956.51691    20528.346
Loop time of 0.214889 on 1 procs for 10 steps with 64 atoms

thermo 1
run 90
Step Time Temp Volume Press
10         0.01    1282.8575    956.51691    23608.693
Loop time of 1.92185 on 1 procs for 90 steps with 64 atoms

thermo 10
run 900
Step Time Temp Volume Press
100          0.1    546.66348    956.51691    49493.588
Loop time of 19.1609 on 1 procs for 900 steps with 64 atoms

thermo 100
run 9000
Step Time Temp Volume Press
1000            1    666.36116    956.51691    49565.083
Averages over the last 46 of 91 rows, steps 5500 to 10000:
Temp Volume Press
689.888 956.517 47563.9
Loop time of 201.416 on 1 procs for 9000 steps with 64 atoms

write_dump all custom my.dump id type x y z
write_data end.inp
System init for write_data ...
